Version 4
SHEET 1 1008 728
WIRE -176 -416 -240 -416
WIRE -48 -416 -112 -416
WIRE 128 -416 -48 -416
WIRE 176 -416 128 -416
WIRE 432 -416 368 -416
WIRE 608 -416 432 -416
WIRE 608 -400 608 -416
WIRE 176 -384 176 -416
WIRE 368 -384 368 -416
WIRE -240 -368 -240 -416
WIRE -48 -352 -48 -416
WIRE 176 -288 176 -304
WIRE 272 -288 176 -288
WIRE 368 -288 368 -304
WIRE 368 -288 272 -288
WIRE 272 -256 272 -288
WIRE 272 -256 240 -256
WIRE 320 -256 272 -256
WIRE -240 -240 -240 -288
WIRE -48 -240 -48 -272
WIRE 320 -176 320 -256
WIRE 432 -176 320 -176
WIRE 624 -176 496 -176
WIRE 320 -160 320 -176
WIRE 624 -112 624 -176
WIRE 320 -64 320 -80
WIRE 624 0 624 -32
WIRE 320 128 240 128
WIRE -48 144 -112 144
WIRE 80 144 16 144
WIRE 80 176 80 144
WIRE 176 176 80 176
WIRE -112 192 -112 144
WIRE 80 208 80 176
WIRE 240 240 240 224
WIRE 352 240 240 240
WIRE 544 240 416 240
WIRE 240 256 240 240
WIRE 544 304 544 240
WIRE -112 320 -112 272
WIRE 80 320 80 288
WIRE 240 352 240 336
WIRE 544 416 544 384
FLAG 544 416 0
FLAG -112 320 0
FLAG 240 432 0
FLAG 80 320 0
FLAG 320 128 0
FLAG 128 -416 base
FLAG 240 -256 emissor
FLAG 432 -416 coletor
FLAG -240 -240 0
FLAG -48 -240 0
FLAG 608 -400 0
FLAG 320 16 0
FLAG 624 0 0
SYMBOL npn 176 128 R0
SYMATTR InstName Q1
SYMATTR Value Transistor2
SYMBOL res 64 192 R0
SYMATTR InstName R2
SYMATTR Value 240k
SYMBOL res 224 240 R0
SYMATTR InstName R4
SYMATTR Value 2k
SYMBOL cap 16 128 R90
WINDOW 0 0 32 VBottom 2
WINDOW 3 32 32 VTop 2
SYMATTR InstName C2
SYMATTR Value 10µF
SYMBOL cap 416 224 R90
WINDOW 0 0 32 VBottom 2
WINDOW 3 32 32 VTop 2
SYMATTR InstName C3
SYMATTR Value 10µF
SYMBOL voltage -112 176 R0
WINDOW 123 0 0 Left 0
WINDOW 39 0 0 Left 0
WINDOW 0 -71 38 Left 2
WINDOW 3 -228 71 Left 2
SYMATTR InstName V1
SYMATTR Value SINE(0 6mV 1k)
SYMBOL voltage 240 448 R180
WINDOW 0 -32 56 VBottom 2
WINDOW 3 32 56 VTop 2
WINDOW 123 0 0 Left 0
WINDOW 39 0 0 Left 0
SYMATTR InstName V2
SYMATTR Value 20V
SYMBOL res 528 288 R0
SYMATTR InstName R5
SYMATTR Value 100
SYMBOL voltage 176 -400 R0
WINDOW 123 0 0 Left 0
WINDOW 39 0 0 Left 0
WINDOW 3 39 58 Left 2
SYMATTR InstName V3
SYMATTR Value 0.7V
SYMBOL res -64 -368 R0
SYMATTR InstName R1
SYMATTR Value 240k
SYMBOL cap -112 -432 R90
WINDOW 0 0 32 VBottom 2
WINDOW 3 32 32 VTop 2
SYMATTR InstName C1
SYMATTR Value 10µF
SYMBOL voltage -240 -384 R0
WINDOW 123 0 0 Left 0
WINDOW 39 0 0 Left 0
WINDOW 0 -71 38 Left 2
WINDOW 3 -228 71 Left 2
SYMATTR InstName V4
SYMATTR Value SINE(0 6mV 1k)
SYMBOL res 304 -176 R0
SYMATTR InstName R3
SYMATTR Value 2k
SYMBOL voltage 320 32 R180
WINDOW 0 -32 56 VBottom 2
WINDOW 3 32 56 VTop 2
WINDOW 123 0 0 Left 0
WINDOW 39 0 0 Left 0
SYMATTR InstName V5
SYMATTR Value 20V
SYMBOL res 608 -128 R0
SYMATTR InstName R6
SYMATTR Value 100
SYMBOL cap 496 -192 R90
WINDOW 0 0 32 VBottom 2
WINDOW 3 32 32 VTop 2
SYMATTR InstName C4
SYMATTR Value 10µF
SYMBOL f 368 -384 R0
WINDOW 3 39 42 Left 2
SYMATTR InstName F1
SYMATTR Value V3 {beta}
TEXT -336 624 Left 2 !.tran .1
TEXT -336 504 Left 2 !.model Transistor2 NPN(BF=82 IS=7fA)
TEXT -240 536 Left 2 ;Quanto menor for IS, maior é VBE.\nFonte: http://s-iihr64.iihr.uiowa.edu/MyWeb/Teaching/ece_55141_2013/Articles/SpiceBJT.pdf
TEXT -336 600 Left 2 !.param beta=90
TEXT -336 472 Left 2 !.model Transistor1 NPN(BF=90)
RECTANGLE Normal 528 -208 64 -480 2
