Version 4
SHEET 1 1988 728
WIRE -960 -624 -1008 -624
WIRE 352 -624 -192 -624
WIRE 480 -624 432 -624
WIRE -960 -608 -960 -624
WIRE 480 -608 480 -624
WIRE -1088 -560 -1088 -624
WIRE -1088 -560 -1248 -560
WIRE -1248 -544 -1248 -560
WIRE -1088 -544 -1088 -560
WIRE 352 -544 352 -624
WIRE 1648 -544 1600 -544
WIRE 1648 -528 1648 -544
WIRE -192 -480 -192 -624
WIRE 1520 -480 1520 -544
WIRE 1520 -480 1360 -480
WIRE -960 -464 -1088 -464
WIRE -880 -464 -896 -464
WIRE 480 -464 352 -464
WIRE 560 -464 544 -464
WIRE 1360 -464 1360 -480
WIRE 1520 -464 1520 -480
WIRE 352 -432 352 -464
WIRE 352 -432 288 -432
WIRE -1392 -416 -1440 -416
WIRE -1248 -416 -1248 -464
WIRE -1248 -416 -1328 -416
WIRE -1152 -416 -1248 -416
WIRE -880 -400 -880 -464
WIRE 560 -400 560 -464
WIRE 1648 -384 1520 -384
WIRE 1728 -384 1712 -384
WIRE -336 -352 -384 -352
WIRE -192 -352 -192 -400
WIRE -192 -352 -272 -352
WIRE -80 -352 -192 -352
WIRE -16 -352 -80 -352
WIRE 288 -352 288 -432
WIRE 288 -352 240 -352
WIRE 304 -352 288 -352
WIRE -1440 -336 -1440 -416
WIRE 1216 -336 1168 -336
WIRE 1360 -336 1360 -384
WIRE 1360 -336 1280 -336
WIRE 1456 -336 1360 -336
WIRE 48 -320 48 -352
WIRE 240 -320 240 -352
WIRE 1728 -320 1728 -384
WIRE -1088 -304 -1088 -368
WIRE -880 -288 -880 -320
WIRE 560 -288 560 -320
WIRE -384 -272 -384 -352
WIRE 1168 -256 1168 -336
WIRE 48 -224 48 -240
WIRE 144 -224 48 -224
WIRE 240 -224 240 -240
WIRE 240 -224 144 -224
WIRE 1520 -224 1520 -288
WIRE -1440 -208 -1440 -256
WIRE 1728 -208 1728 -240
WIRE 144 -192 144 -224
WIRE 144 -192 112 -192
WIRE 192 -192 144 -192
WIRE -384 -144 -384 -192
WIRE 1168 -128 1168 -176
WIRE 192 -112 192 -192
FLAG -880 -288 0
FLAG -1440 -208 0
FLAG -1088 -304 0
FLAG -80 -352 base
FLAG 112 -192 emissor
FLAG 304 -352 coletor
FLAG -960 -608 0
FLAG 560 -288 0
FLAG -384 -144 0
FLAG 192 -112 0
FLAG 480 -608 0
FLAG 1728 -208 0
FLAG 1168 -128 0
FLAG 1520 -224 0
FLAG 1648 -528 0
SYMBOL npn -1152 -464 R0
SYMATTR InstName Q1
SYMATTR Value Transistor2
SYMBOL res -1264 -560 R0
SYMATTR InstName R2
SYMATTR Value 240k
SYMBOL res -1104 -560 R0
SYMATTR InstName R4
SYMATTR Value 2k
SYMBOL cap -1328 -432 R90
WINDOW 0 0 32 VBottom 2
WINDOW 3 32 32 VTop 2
SYMATTR InstName C2
SYMATTR Value 10µF
SYMBOL cap -896 -480 R90
WINDOW 0 0 32 VBottom 2
WINDOW 3 32 32 VTop 2
SYMATTR InstName C3
SYMATTR Value 10µF
SYMBOL voltage -1440 -352 R0
WINDOW 123 0 0 Left 0
WINDOW 39 0 0 Left 0
WINDOW 0 -71 38 Left 2
WINDOW 3 -228 71 Left 2
SYMATTR InstName V1
SYMATTR Value SINE(0 6mV 1k)
SYMBOL voltage -1104 -624 R270
WINDOW 0 -32 56 VBottom 2
WINDOW 3 32 56 VTop 2
WINDOW 123 0 0 Left 0
WINDOW 39 0 0 Left 0
SYMATTR InstName V2
SYMATTR Value 20V
SYMBOL res -896 -416 R0
SYMATTR InstName R5
SYMATTR Value 100
SYMBOL voltage 48 -336 R0
WINDOW 123 0 0 Left 0
WINDOW 39 0 0 Left 0
WINDOW 3 39 58 Left 2
SYMATTR Value {VBE}
SYMATTR InstName V3
SYMBOL f 240 -320 R0
WINDOW 3 39 42 Left 2
SYMATTR Value V3 {beta}
SYMATTR InstName F1
SYMBOL diode -16 -336 R270
WINDOW 0 32 32 VTop 2
WINDOW 3 83 45 VBottom 2
SYMATTR InstName D1
SYMATTR Value DiodoIdeal
SYMBOL npn 1456 -384 R0
SYMATTR InstName Q2
SYMATTR Value BJT_ideal
SYMATTR Prefix X
SYMBOL res -208 -496 R0
SYMATTR InstName R1
SYMATTR Value 240k
SYMBOL res 336 -560 R0
SYMATTR InstName R3
SYMATTR Value 2k
SYMBOL cap -272 -368 R90
WINDOW 0 0 32 VBottom 2
WINDOW 3 32 32 VTop 2
SYMATTR InstName C1
SYMATTR Value 10µF
SYMBOL cap 544 -480 R90
WINDOW 0 0 32 VBottom 2
WINDOW 3 32 32 VTop 2
SYMATTR InstName C4
SYMATTR Value 10µF
SYMBOL voltage -384 -288 R0
WINDOW 123 0 0 Left 0
WINDOW 39 0 0 Left 0
WINDOW 0 -71 38 Left 2
WINDOW 3 -228 71 Left 2
SYMATTR InstName V4
SYMATTR Value SINE(0 6mV 1k)
SYMBOL voltage 336 -624 R270
WINDOW 0 -32 56 VBottom 2
WINDOW 3 32 56 VTop 2
WINDOW 123 0 0 Left 0
WINDOW 39 0 0 Left 0
SYMATTR InstName V5
SYMATTR Value 20V
SYMBOL res 544 -416 R0
SYMATTR InstName R6
SYMATTR Value 100
SYMBOL res 1344 -480 R0
SYMATTR InstName R9
SYMATTR Value 240k
SYMBOL res 1504 -480 R0
SYMATTR InstName R10
SYMATTR Value 2k
SYMBOL cap 1280 -352 R90
WINDOW 0 0 32 VBottom 2
WINDOW 3 32 32 VTop 2
SYMATTR InstName C5
SYMATTR Value 10µF
SYMBOL cap 1712 -400 R90
WINDOW 0 0 32 VBottom 2
WINDOW 3 32 32 VTop 2
SYMATTR InstName C6
SYMATTR Value 10µF
SYMBOL voltage 1168 -272 R0
WINDOW 123 0 0 Left 0
WINDOW 39 0 0 Left 0
WINDOW 0 -71 38 Left 2
WINDOW 3 -228 71 Left 2
SYMATTR InstName V7
SYMATTR Value SINE(0 6mV 1k)
SYMBOL voltage 1504 -544 R270
WINDOW 0 -32 56 VBottom 2
WINDOW 3 32 56 VTop 2
WINDOW 123 0 0 Left 0
WINDOW 39 0 0 Left 0
SYMATTR InstName V8
SYMATTR Value 20V
SYMBOL res 1712 -336 R0
SYMATTR InstName R11
SYMATTR Value 100
TEXT -1648 0 Left 2 !.tran .1
TEXT -1664 -88 Left 2 !.model Transistor2 NPN(BF=82 IS=7fA)
TEXT -1568 -56 Left 2 ;Quanto menor for IS, maior é VBE.\nFonte: http://s-iihr64.iihr.uiowa.edu/MyWeb/Teaching/ece_55141_2013/Articles/SpiceBJT.pdf
TEXT -400 -88 Left 2 !.param beta=90
TEXT -1664 -120 Left 2 !.model Transistor1 NPN(BF=90)
TEXT -400 -64 Left 2 !.param VBE=0.7
TEXT -392 -40 Left 2 !.model DiodoIdeal D(Ron=0 Roff=999meg Vfwd=0)
TEXT 1160 -72 Left 2 !.lib SpiceModel_BJT_Ideal.mod
RECTANGLE Normal 400 -144 -64 -416 2
